v0.5.0/WI_grid.m
%% MATPOWER Case Format : Version 2
function mpc = Project_Wisconsin
mpc.version = '2';

%%-----  Power Flow Data  -----%%
%% system MVA base
mpc.baseMVA = 100.0;
%% bus data
%    bus_i    type    Pd    Qd    Gs    Bs    area    Vm    Va    baseKV    zone    Vmax    Vmin
mpc.bus = [
	1	2	0.0	0.0	0.0	0.0	1	1.0000009	-10.514848	22.0	1	1.1	0.9	22.22	0.0	0.0	0.0
	2	2	0.0	0.0	0.0	0.0	1	1.0000009	-10.519215	22.0	1	1.1	0.9	22.22	0.0	0.0	0.0
	3	1	22.16	7.03	0.0	0.0	1	0.9864995	-11.271153	345.0	1	1.1	0.9	22.22	0.0	0.0	0.0
	4	1	0.0	0.0	0.0	0.0	1	0.9631911	-17.685588	345.0	1	1.1	0.9	22.22	0.0	0.0	0.0
	5	2	474.0	150.4	0.0	95.0	1	0.9577732	-20.964749000000005	138.0	1	1.1	0.9	22.22	0.0	0.0	0.0
	6	2	0.0	0.0	0.0	0.0	1	1.0000017	-14.721463	13.4	1	1.1	0.9	22.22	0.0	0.0	0.0
	7	1	117.19999999999999	25.0	0.0	25.0	1	0.9350127	-30.967957000000002	138.0	1	1.1	0.9	22.22	0.0	0.0	0.0
	8	1	1032.7	305.0	0.0	290.0	1	0.9523972	-30.889655000000005	138.0	1	1.1	0.9	22.22	0.0	0.0	0.0
	9	1	150.6	46.34	0.0	35.0	1	0.9910816	-10.258568	345.0	1	1.1	0.9	22.22	0.0	0.0	0.0
	10	1	217.49999999999997	65.7	0.0	45.0	1	0.9872659	-10.008344	345.0	1	1.1	0.9	22.22	0.0	0.0	0.0
	11	1	134.0	41.0	0.0	35.0	1	0.9153878	24.062042	345.0	1	1.1	0.9	22.22	0.0	0.0	0.0
	12	1	0.0	0.0	0.0	0.0	1	0.9877995	-6.38973	345.0	1	1.1	0.9	22.22	0.0	0.0	0.0
	13	3	0.0	0.0	0.0	0.0	1	1.0	0.0	19.0	1	1.1	0.9	22.22	0.0	0.0	0.0
	14	1	109.2	32.9	0.0	25.0	1	0.9658389	-14.21289	345.0	1	1.1	0.9	22.22	0.0	0.0	0.0
	15	1	202.99999999999997	80.0	0.0	65.0	1	0.9423578	-24.528802	345.0	1	1.1	0.9	22.22	0.0	0.0	0.0
	17	1	84.5	25.900000000000002	0.0	0.0	1	0.9138386	4.374944	345.0	1	1.1	0.9	22.22	0.0	0.0	0.0
	18	1	74.07	23.44	0.0	17.0	1	0.9828934	-7.810187000000001	345.0	1	1.1	0.9	22.22	0.0	0.0	0.0
	19	1	93.23	29.580000000000002	0.0	0.0	1	0.9727132	-13.877966	345.0	1	1.1	0.9	22.22	0.0	0.0	0.0
	20	2	0.0	0.0	0.0	0.0	1	1.0000084	-28.236426	18.0	1	1.1	0.9	22.22	0.0	0.0	0.0
	21	2	0.0	0.0	0.0	0.0	1	1.0000005	43.425549	345.0	1	1.1	0.9	22.22	0.0	0.0	0.0
	22	2	0.0	0.0	0.0	0.0	1	1.0000024	-3.291959	345.0	1	1.1	0.9	22.22	0.0	0.0	0.0
];

%% generator data
%    bus    Pg    Qg    Qmax    Qmin    Vg    mBase    status    Pmax    Pmin    Pc1    Pc2    Qc1min    Qc1max    Qc2min    Qc2max    ramp_agc    ramp_10    ramp_30    ramp_q    apf
mpc.gen = [
	1	105.0	104.67	247.00000000000003	-100.0	1.0	100.0	1	525.0	0.0	0.0	0.0	0.0	0.0	0.0	0.0	0.0	0.0	0.0	0.0	10.0	0.0	0.0	0.0	0.0
	2	105.0	105.24	245.00000000000003	-100.0	1.0	100.0	1	525.0	0.0	0.0	0.0	0.0	0.0	0.0	0.0	0.0	0.0	0.0	0.0	10.0	0.0	0.0	0.0	0.0
	5	2.0	-1.0	-1.0	-1.0	0.9578	100.0	1	2.0	2.0	0.0	0.0	0.0	0.0	0.0	0.0	0.0	0.0	0.0	0.0	10.0	0.0	0.0	0.0	0.0
	6	146.0	49.16	74.0	-57.99999999999999	1.0	100.0	1	146.0	0.0	0.0	0.0	0.0	0.0	0.0	0.0	0.0	0.0	0.0	0.0	10.0	0.0	0.0	0.0	0.0
	13	512.02	74.74	205.6	0.0	1.0	100.0	1	512.0	150.0	0.0	0.0	0.0	0.0	0.0	0.0	0.0	0.0	0.0	0.0	10.0	0.0	0.0	0.0	0.0
	13	514.02	71.98	198.0	0.0	1.0	100.0	1	514.0	150.0	0.0	0.0	0.0	0.0	0.0	0.0	0.0	0.0	0.0	0.0	10.0	0.0	0.0	0.0	0.0
	20	115.84999999999998	112.86	136.0	-82.0	1.0	100.0	1	298.0	90.0	0.0	0.0	0.0	0.0	0.0	0.0	0.0	0.0	0.0	0.0	10.0	0.0	0.0	0.0	0.0
	20	90.0	106.58000000000001	126.0	-56.99999999999999	1.0	100.0	1	314.0	90.0	0.0	0.0	0.0	0.0	0.0	0.0	0.0	0.0	0.0	0.0	10.0	0.0	0.0	0.0	0.0
	21	600.0	193.03	9900.0	-9900.0	1.0	100.0	1	1000.0	0.0	0.0	0.0	0.0	0.0	0.0	0.0	0.0	0.0	0.0	0.0	10.0	0.0	0.0	0.0	0.0
	22	600.0	136.7	9900.0	-9900.0	1.0	100.0	1	1000.0	0.0	0.0	0.0	0.0	0.0	0.0	0.0	0.0	0.0	0.0	0.0	10.0	0.0	0.0	0.0	0.0
];

%% branch data
%    f_bus    t_bus    r    x    b    rateA    rateB    rateC    ratio    angle    status    angmin    angmax
mpc.branch = [
	1	3	0.00029	0.01269	0.0	594.0	593.6	593.6	1.0	0.0	1	-60.0001403060998	60.0001403060998	105.0	104.67	-104.93999999999998	-101.88	0.0	0.0	0.0	0.0
	2	3	0.00029	0.01262	0.0	594.0	593.6	593.6	1.0	0.0	1	-60.0001403060998	60.0001403060998	105.0	105.24	-104.93999999999998	-102.46	0.0	0.0	0.0	0.0
	4	3	0.001678	0.02404	0.25743	1096.0	1096.0	1096.0	0	0	1	-60.0001403060998	60.0001403060998	-444.21	-49.58	447.79999999999995	76.61	0.0	0.0	0.0	0.0
	3	9	0.004054	0.058085	0.62202	1096.0	1096.0	1096.0	0	0	1	-60.0001403060998	60.0001403060998	-30.12	-35.68	30.159999999999997	-24.57	0.0	0.0	0.0	0.0
	3	17	0.0047	0.06734	0.7211	1096.0	1096.0	1096.0	0	0	1	-60.0001403060998	60.0001403060998	-348.46	145.28	355.89	-103.95	0.0	0.0	0.0	0.0
	3	19	0.002618	0.037507	0.40165	1096.0	1096.0	1096.0	0	0	1	-60.0001403060998	60.0001403060998	118.5	11.09	-118.10000000000001	-43.87	0.0	0.0	0.0	0.0
	4	5	0.00037	0.0238	0.0006	500.0	500.0	500.0	1.0	0.0	1	-60.0001403060998	60.0001403060998	222.10000000000002	24.79	-221.89999999999998	-12.03	0.0	0.0	0.0	0.0
	4	5	0.00037	0.0238	0.0006	500.0	500.0	500.0	1.0	0.0	1	-60.0001403060998	60.0001403060998	222.10000000000002	24.79	-221.89999999999998	-12.03	0.0	0.0	0.0	0.0
	5	6	0.0079	0.074	0.0	208.0	208.0	208.0	1.0	0.0	1	-60.0001403060998	60.0001403060998	-144.13	-31.59	146.0	49.16	0.0	0.0	0.0	0.0
	5	7	0.066931	0.266887	0.06597	208.0	208.0	208.0	0	0	1	-60.0001403060998	60.0001403060998	57.97	-4.29	-55.50999999999999	8.17	0.0	0.0	0.0	0.0
	5	7	0.06693	0.26689	0.066	208.0	208.0	208.0	0	0	1	-60.0001403060998	60.0001403060998	57.97	-4.3	-55.50999999999999	8.16	0.0	0.0	0.0	0.0
	7	8	0.020235	0.080687	0.01994	208.0	208.0	208.0	0	0	1	-60.0001403060998	60.0001403060998	-6.17	-19.47	6.260000000000001	18.05	0.0	0.0	0.0	0.0
	15	8	0.00037	0.0238	0.0	500.0	500.0	500.0	1.0	0.0	1	-60.0001403060998	60.0001403060998	417.42999999999995	-23.03	-416.7	69.87	0.0	0.0	0.0	0.0
	15	8	0.00037	0.0238	0.0	500.0	500.0	500.0	1.0	0.0	1	-60.0001403060998	60.0001403060998	417.42999999999995	-23.03	-416.7	69.87	0.0	0.0	0.0	0.0
	20	8	0.00075	0.04362	0.0	345.0	345.0	345.0	1.0	0.0	1	-60.0001403060998	60.0001403060998	102.95999999999998	109.72	-102.79	-99.85	0.0	0.0	0.0	0.0
	20	8	0.00075	0.04362	0.0	345.0	345.0	345.0	1.0	0.0	1	-60.0001403060998	60.0001403060998	102.95999999999998	109.72	-102.79	-99.85	0.0	0.0	0.0	0.0
	10	9	0.001427	0.020453	0.21902	1096.0	1096.0	1096.0	0	0	1	-60.0001403060998	60.0001403060998	19.52	-30.409999999999997	-19.5	9.14	0.0	0.0	0.0	0.0
	9	12	0.002829	0.040528	0.434	1096.0	1096.0	1096.0	0	0	1	-60.0001403060998	60.0001403060998	-161.26	3.47	162.02	-34.98	0.0	0.0	0.0	0.0
	12	10	0.001801	0.025802	0.2763	1096.0	1096.0	1096.0	0	0	1	-60.0001403060998	60.0001403060998	238.05999999999997	-20.52	-237.02	8.57	0.0	0.0	0.0	0.0
	11	17	0.004392	0.062931	0.67391	1096.0	1096.0	1096.0	0	0	1	-60.0001403060998	60.0001403060998	451.19	20.23	-440.4	78.05	0.0	0.0	0.0	0.0
	21	11	0.003624	0.051918	0.55597	1096.0	1096.0	1096.0	0	0	1	-60.0001403060998	60.0001403060998	600.0	193.03	-585.19	-31.900000000000002	0.0	0.0	0.0	0.0
	13	12	0.0005	0.0215	0.0	566.0	566.0	566.0	1.0	-0.0	1	-60.0001403060998	60.0001403060998	-511.68000000000006	-15.61	513.02	73.36	0.0	0.0	0.0	0.0
	13	12	0.0005	0.0215	0.0	566.0	566.0	566.0	1.0	0.0	1	-60.0001403060998	60.0001403060998	513.02	73.36	-511.68000000000006	-15.61	0.0	0.0	0.0	0.0
	12	18	0.00027	0.0039	0.0418	1100.0	1100.0	1100.0	0	0	1	-60.0001403060998	60.0001403060998	623.27	86.73	-622.17	-74.94	0.0	0.0	0.0	0.0
	15	14	0.002504	0.035871	0.38413	1096.0	1096.0	1096.0	0	0	1	-60.0001403060998	60.0001403060998	-453.61	-6.07	459.41999999999996	54.26	0.0	0.0	0.0	0.0
	18	14	0.001362	0.019509	0.20891	1096.0	1096.0	1096.0	0	0	1	-60.0001403060998	60.0001403060998	548.1	67.93	-543.78	-25.869999999999997	0.0	0.0	0.0	0.0
	19	14	0.001665	0.023851	0.25541	1096.0	1096.0	1096.0	0	0	1	-60.0001403060998	60.0001403060998	24.87	14.279999999999998	-24.84	-37.95	0.0	0.0	0.0	0.0
	15	22	0.00405	0.058022	0.62134	1096.0	1096.0	1096.0	0	0	1	-60.0001403060998	60.0001403060998	-584.29	29.86	600.01	136.7	0.0	0.0	0.0	0.0
];

%%-----  OPF Data  -----%%
%% cost data
%    1    startup    shutdown    n    x1    y1    ...    xn    yn
%    2    startup    shutdown    n    c(n-1)    ...    c0
mpc.gencost = [
	2	0.0	0.0	3	0.01	20.0	100.0
	2	0.0	0.0	3	0.01	20.0	100.0
	2	0.0	0.0	3	0.0	0.0	0.0
	2	0.0	0.0	3	0.01	15.0	100.0
	2	0.0	0.0	3	0.01	10.0	100.0
	2	0.0	0.0	3	0.01	10.0	100.0
	2	0.0	0.0	3	0.01	20.0	100.0
	2	0.0	0.0	3	0.01	20.0	100.0
	2	0.0	0.0	3	0.01	10.0	100.0
	2	0.0	0.0	3	0.01	10.0	100.0
];

%% bus names
mpc.bus_name = {
	'COL G1'
	'COL G2'
	'COL 345'
	'MAD 345'
	'MAD 138'
	'WCCF CT'
	'WAUKSHA138'
	'MILW 138'
	'APPLT 345'
	'GRNBAY 345'
	'EAUCLRE345'
	'PNTBCH 345'
	'PNTBCH G1'
	'SHEGAN 345'
	'MILW 345'
	'WASAU 345'
	'MANTWOC345'
	'FOND 345'
	'OAKCRK G'
	'WORLD NW'
	'World SE'
};

%column_names% ycoord_1 xcoord_1 
mpc.bus_data = {
	43.48	-89.417
	43.491	-89.418
	43.523	-89.394
	43.022	-89.49
	43.079	-89.374
	43.075	-89.425
	43.013	-88.244
	43.04	-87.902
	44.254	-88.41
	44.531	-88.014
	44.836	-91.516
	44.271	-87.583
	44.281	-87.536
	43.755	-87.717
	43.079	-88.064
	44.946	-89.637
	44.095	-87.67
	43.78	-88.452
	42.845	-87.838
	45.026	-92.763
	42.493	-87.867
};

%column_names% ycoord_1 xcoord_1 
mpc.load_data = {
	43.623	-89.594
	43.279	-89.274
	42.713	-88.244
	43.24	-87.702
	44.354	-88.61
	44.731	-88.014
	44.636	-91.516
	43.755	-87.517
	43.179	-88.264
	44.946	-89.337
	44.095	-87.87
	43.98	-88.452
};

%column_names% ycoord_1 xcoord_1 Fuel_Types 
mpc.gen_data = {
	43.58	-89.917	'coal'
	43.38	-89.918	'coal'
	43.279	-89.074	'wind'
	43.075	-89.725	'ng'
	44.381	-87.336	'nuclear'
	44.181	-87.336	'nuclear'
	42.745	-87.538	'coal'
	42.645	-87.738	'coal'
	44.726	-92.763	'unknown'
	42.293	-87.867	'unknown'
};

%column_names% ycoord_1 xcoord_2 ycoord_2 xcoord_1 
mpc.branch_data = {
	43.52269174866547	-89.41725400447733	43.48029174287569	-89.39435121024943
	43.523357785917696	-89.41773123304226	43.49065887004639	-89.39417869923601
	43.52289478024039	-89.49010772177643	43.021669757989564	-89.39403726062746
	44.25412876392748	-89.3935241749183	43.52310576765378	-88.40967463522908
	44.94645890374889	-89.39374331765251	43.52328164255535	-89.63748949904499
	43.78046920824946	-89.39401175607908	43.52348048953918	-88.45213088213796
	43.078633331215414	-89.48979108356455	43.02234721877828	-89.37439888950414
	43.07901424781258	-89.49026824967194	43.02197991433515	-89.37372697519544
	43.075022425311566	-89.37395972978297	43.07903182546427	-89.42474276764325
	43.012949838928115	-89.37394300579395	43.07859762609064	-88.24424605752611
	43.01254394165977	-89.37395308655015	43.078590960969535	-88.24403104300082
	43.03959596349074	-88.2435171549564	43.01330405243691	-87.90173633236921
	43.04003575549193	-88.06436155862616	43.07861176789349	-87.90211724354421
	43.04045875291494	-88.06448867406169	43.07914530052572	-87.90177066713471
	43.0400075569055	-87.83823483096205	42.8453274043427	-87.90183408672202
	43.04027184913766	-87.8379523161407	42.84476126353264	-87.90152055473236
	44.2542150557123	-88.01366485164644	44.53069808614154	-88.40986785664131
	44.27096121592429	-88.41038026373623	44.25398855004666	-87.58278729837136
	44.531484155115265	-87.58345391887445	44.27106023120218	-88.01375261961986
	44.945530041824526	-91.51616601635334	44.835771398372856	-89.63746367129795
	44.83563771697674	-92.76312278301636	45.026154579589324	-91.51557701084403
	44.270504565367574	-87.53612224143818	44.28144582903018	-87.58288468140736
	44.27078040008674	-87.53606951752579	44.28110320281933	-87.5832292675062
	44.09514008650751	-87.58251915262419	44.27148645686664	-87.66993296111309
	43.7551095416959	-88.06360546382511	43.07878777385196	-87.71721999779324
	43.75498038358739	-87.67013842277306	44.0953303963357	-87.7168998892179
	43.75470365101841	-88.45240628066833	43.780384186098004	-87.71677996303045
	42.49257192416314	-88.06374335769529	43.07870420198377	-87.86745470706977
};

